-------------------------------------------------------
          Amber 16 PMEMD                              2016
          -------------------------------------------------------

  [-O]verwriting output

File Assignments:

 Here is the input file:

prod complex
 &cntrl
  imin=0,irest=1,ntx=5,
  nstlim=250000,dt=0.002,
  ntc=2,ntf=2,
  cut=8.0, ntb=2, ntp=1, taup=2.0,
  ntpr=5000, ntwx=5000,
  ntt=3, gamma_ln=2.0,
  temp0=300.0, ig=-1,
 /

Note: ig = -1. Setting random seed to   541334 based on wallclock time in
      microseconds.

--------------------------------------------------------------------------------
   1.  RESOURCE   USE:
--------------------------------------------------------------------------------

 getting box info from netcdf restart file
 NATOM  =   33025 NTYPES =      16 NBONH =   31925 MBONA  =    1141
 NTHETH =    2323 MTHETA =    1561 NPHIH =    4820 MPHIA  =    4805
 NHPARM =       0 NPARM  =       0 NNB   =   52973 NRES   =   10441
 NBONA  =    1141 NTHETA =    1561 NPHIA =    4805 NUMBND =      65
 NUMANG =     148 NPTRA  =     185 NATYP =      33 NPHB   =       1
 IFBOX  =       1 NMXRS  =      24 IFCAP =       0 NEXTRA =       0
 NCOPY  =       0

     BOX TYPE: RECTILINEAR

--------------------------------------------------------------------------------
   2.  CONTROL  DATA  FOR  THE  RUN
--------------------------------------------------------------------------------

default_name

General flags:
     imin    =       0, nmropt  =       0

Nature and format of input:
     ntx     =       5, irest   =       1, ntrx    =       1

Nature and format of output:
     ntxo    =       2, ntpr    =    5000, ntrx    =       1, ntwr    =  250000
     iwrap   =       0, ntwx    =    5000, ntwv    =       0, ntwe    =       0
     ioutfm  =       1, ntwprt  =       0, idecomp =       0, rbornstat=      0

Potential function:
     ntf     =       2, ntb     =       2, igb     =       0, nsnb    =      25
     ipol    =       0, gbsa    =       0, iesp    =       0
     dielc   =   1.00000, cut     =   8.00000, intdiel =   1.00000

Frozen or restrained atoms:
     ibelly  =       0, ntr     =       0

Molecular dynamics:
     nstlim  =    250000, nscm    =      1000, nrespa  =         1
     t       =   0.00000, dt      =   0.00200, vlimit  =  20.00000

Langevin dynamics temperature regulation:
     ig      =  541334
     temp0   = 300.00000, tempi   =   0.00000, gamma_ln=   2.00000

Pressure regulation:
     ntp     =       1
     pres0   =   1.00000, comp    =  44.60000, taup    =   2.00000

SHAKE:
     ntc     =       2, jfastw  =       0
     tol     =   0.00001

Ewald parameters:
     verbose =       0, ew_type =       0, nbflag  =       1, use_pme =       1
     vdwmeth =       1, eedmeth =       1, netfrc  =       1
     Box X =   85.235   Box Y =   64.744   Box Z =   74.743
     Alpha =   90.000   Beta  =   90.000   Gamma =   90.000
     NFFT1 =   90       NFFT2 =   72       NFFT3 =   75
     Cutoff=    8.000   Tol   =0.100E-04
     Ewald Coefficient =  0.34864
     Interpolation order =    4

--------------------------------------------------------------------------------
   3.  ATOMIC COORDINATES AND VELOCITIES
--------------------------------------------------------------------------------

default_name
 begin time read from input coords =    50.000 ps

 Number of triangulated 3-point waters found:    10304

     Sum of charges from parm topology file =  -7.00000005
     Assuming uniform neutralizing plasma

--------------------------------------------------------------------------------
   4.  RESULTS
 NSTEP =     5000   TIME(PS) =      60.000  TEMP(K) =   300.22  PRESS =  -168.5
 Etot   =    -80353.7789  EKtot   =     20030.3588  EPtot      =   -100384.1377
 BOND   =       415.1780  ANGLE   =      1021.4817  DIHED      =      1799.4451
 1-4 NB =       470.3358  1-4 EEL =      5584.1813  VDWAALS    =     13560.3921
 EELEC  =   -123235.1516  EHBOND  =         0.0000  RESTRAINT  =         0.0000
 EKCMT  =      9314.4773  VIRIAL  =     10740.0868  VOLUME     =    391740.7781
                                                    Density    =         0.8531
 Ewald error estimate:   0.1054E-04
 ------------------------------------------------------------------------------

      A V E R A G E S   O V E R      50 S T E P S

 NSTEP =   250000   TIME(PS) =     550.000  TEMP(K) =   300.28  PRESS =   -22.9
 Etot   =    -82266.3400  EKtot   =     20034.8763  EPtot      =   -102301.2163
 BOND   =       427.4286  ANGLE   =      1065.7342  DIHED      =      1755.8308
 1-4 NB =       480.6159  1-4 EEL =      5585.2069  VDWAALS    =     13411.7715
 EELEC  =   -125027.8042  EHBOND  =         0.0000  RESTRAINT  =         0.0000
 EKCMT  =      9245.5562  VIRIAL  =      9421.8414  VOLUME     =    333539.8744
                                                    Density    =         1.0027
 Ewald error estimate:   0.7249E-04
 ------------------------------------------------------------------------------

      R M S  F L U C T U A T I O N S

 NSTEP =   250000   TIME(PS) =     550.000  TEMP(K) =     1.62  PRESS =   147.1
 Etot   =       411.4531  EKtot   =       107.7777  EPtot      =       395.8155
 BOND   =        16.6093  ANGLE   =        26.4932  DIHED      =        15.3386
 1-4 NB =         9.2925  1-4 EEL =        26.4004  VDWAALS    =       171.3735
 EELEC  =       448.8071  EHBOND  =         0.0000  RESTRAINT  =         0.0000
 EKCMT  =        72.2213  VIRIAL  =      1085.0785  VOLUME     =      9984.6610
                                                    Density    =         0.0263
 Ewald error estimate:   0.5672E-04
 ------------------------------------------------------------------------------
